
 OpenBabel06181908553D

 11 11  0  0  0  0  0  0  0  0999 V2000
    0.8361    0.1260   -0.0612 C   0  0  0  0  0  0  0  0  0  0  0  0
   -0.3656    0.1039   -0.0568 C   0  0  0  0  0  0  0  0  0  0  0  0
   -1.7802    0.0320   -0.0516 C   0  0  0  0  0  0  0  0  0  0  0  0
   -2.5894   -1.1427   -0.0496 C   0  0  0  0  0  0  0  0  0  0  0  0
   -3.8580   -0.6520   -0.0442 C   0  0  0  0  0  0  0  0  0  0  0  0
   -3.8323    0.7017   -0.0432 O   0  0  0  0  0  0  0  0  0  0  0  0
   -2.5259    1.1273   -0.0482 N   0  0  0  0  0  0  0  0  0  0  0  0
   -5.1211   -1.2905   -0.0396 C   0  0  0  0  0  0  0  0  0  0  0  0
   -6.1410   -1.8386   -0.0360 N   0  0  0  0  0  0  0  0  0  0  0  0
    1.8993    0.1571   -0.0651 H   0  0  0  0  0  0  0  0  0  0  0  0
   -2.2706   -2.1710   -0.0516 H   0  0  0  0  0  0  0  0  0  0  0  0
  1  2  3  0  0  0  0
  1 10  1  0  0  0  0
  2  3  1  0  0  0  0
  3  4  1  0  0  0  0
  3  7  2  0  0  0  0
  4  5  2  0  0  0  0
  4 11  1  0  0  0  0
  5  6  1  0  0  0  0
  5  8  1  0  0  0  0
  6  7  1  0  0  0  0
  8  9  3  0  0  0  0
M  END
$$$$
