
 OpenBabel06181908413D

 11 11  0  0  0  0  0  0  0  0999 V2000
    0.9863   -0.1937   -0.0217 C   0  0  0  0  0  0  0  0  0  0  0  0
   -0.2142   -0.1028   -0.0237 C   0  0  0  0  0  0  0  0  0  0  0  0
   -1.6064    0.0351   -0.0260 C   0  0  0  0  0  0  0  0  0  0  0  0
   -2.3981   -1.0830   -0.0312 O   0  0  0  0  0  0  0  0  0  0  0  0
   -3.6672   -0.6104   -0.0321 C   0  0  0  0  0  0  0  0  0  0  0  0
   -3.7698    0.6766   -0.0281 N   0  0  0  0  0  0  0  0  0  0  0  0
   -2.4532    1.1181   -0.0240 C   0  0  0  0  0  0  0  0  0  0  0  0
   -2.0962    2.4890   -0.0188 C   0  0  0  0  0  0  0  0  0  0  0  0
   -1.7858    3.6045   -0.0145 N   0  0  0  0  0  0  0  0  0  0  0  0
    2.0475   -0.2665   -0.0200 H   0  0  0  0  0  0  0  0  0  0  0  0
   -4.4582   -1.3451   -0.0361 H   0  0  0  0  0  0  0  0  0  0  0  0
  1  2  3  0  0  0  0
  1 10  1  0  0  0  0
  2  3  1  0  0  0  0
  3  4  1  0  0  0  0
  3  7  2  0  0  0  0
  4  5  1  0  0  0  0
  5  6  2  0  0  0  0
  5 11  1  0  0  0  0
  6  7  1  0  0  0  0
  7  8  1  0  0  0  0
  8  9  3  0  0  0  0
M  END
$$$$
